CoresoETL/UCT_Source/20221026_1230_FO3_ES0.uct
##C 2007.05.01
 RED ELÉCTRICA DE ESPAÑA, S.A.
DACF (25-10-2022 15:09) HORIZON: 20221026 12H DEM: 29244.25 
HID: 739 MW, TERM: 12594 MW, EOL: 6272 MW, FV: 6252 MW      
##N
##ZES
EAGUAY11 AGUAYO       0 0 421.17     0.0     0.0     0.0     0.0     0.0     0.0     0.0     0.0
EALUMI11 ALUMINIO     0 0 419.51     3.4     3.0     0.0     0.0     0.0     0.0     0.0     0.0
ELUDRI11 LUDRIO       0 0 418.35  -139.2     1.5     0.0     0.0     0.0     0.0     0.0     0.0
EPGORD11 POLGORDO     0 0            0.0     0.0     0.0     0.0     0.0     0.0     0.0     0.0
ESOLOR11 SOLORZAN     0 0 426.79     0.0     0.0     0.0     0.0     0.0     0.0     0.0     0.0
EAPARE11 APARECID     0 2 419.25  -103.3   201.1   -63.8    -0.0     0.0  -188.6    -0.0    -0.0
EBOIME11 BOIMENTE     0 0 420.72  -390.5   -21.2     0.0     0.0     0.0     0.0     0.0     0.0
ECARTE11 CARTELLE     0 0 411.59     0.0   143.7     0.0     0.0     0.0     0.0     0.0     0.0
EARBIL11 ARBILLER     0 0  422.6     2.4    -6.1     0.0     0.0     0.0     0.0     0.0     0.0
ECOMPO11 COMPOSTI     0 0            0.0     0.0     0.0     0.0     0.0     0.0     0.0     0.0
EEL PA11 EL PALO      0 2 423.15   -29.4     1.0   -19.2    -0.0     0.0   -50.0    -0.0    -0.0
EPESOZ11 PESOZ        0 0 422.98     0.0     0.0     0.0     0.0     0.0     0.0     0.0     0.0
ESTAMA11 STAMARGR     0 0  422.5    87.6     1.1     0.0     0.0     0.0     0.0     0.0     0.0
ELA LO11 LA LOMBA     0 0 420.76     0.0   166.0     0.0     0.0     0.0     0.0     0.0     0.0
ELA RO11 LA ROBLA     0 0 424.07    52.1    11.6     0.0     0.0     0.0     0.0     0.0     0.0
ELADA 11 LADA         0 0 416.31    54.6    22.1     0.0     0.0     0.0     0.0     0.0     0.0
ELUENG11 LUENGOS      0 0 426.67     4.5   -11.2     0.0     0.0     0.0     0.0     0.0     0.0
ESILLE11 SILLEDA      0 0 414.58     2.6    -9.0     0.0     0.0     0.0     0.0     0.0     0.0
EMESON11 MESON V.     0 0 417.45     0.0     0.0     0.0     0.0     0.0     0.0     0.0     0.0
EMONTE11 MONTEARE     0 0 421.19     0.0   166.3     0.0     0.0     0.0     0.0     0.0     0.0
EP.G.R11 P.G.RODR     0 2 415.08    25.4    58.2  -383.2   335.7     0.0  -857.3   457.9  -765.9
EPENAG11 PENAGOS      0 0 427.79     0.0     0.0     0.0     0.0     0.0     0.0     0.0     0.0
ESANZO11 SANZO        0 0 422.98   -30.8     8.4     0.0     0.0     0.0     0.0     0.0     0.0
ESOTOR11 SOTORIBE     0 2 416.98     1.2   242.9  -687.4   170.5     0.0  -854.1   312.9  -659.6
ESALAS11 SALAS        0 2  421.8    83.4   -15.1   -58.4    -0.0     0.0   -81.1    -0.0    -0.0
ETDUDA11 TDUDALLA     0 0 426.25    22.1    -5.9     0.0     0.0     0.0     0.0     0.0     0.0
ETRIVE11 TRIVES       0 0 419.16     0.0     0.0     0.0     0.0     0.0     0.0     0.0     0.0
EVELIL11 VELILLA      0 0  419.4     0.0   164.9     0.0     0.0     0.0     0.0     0.0     0.0
EVILEC11 VILECHA      0 2 425.17    66.0   -13.1    -1.7    -0.0     0.0    -5.1    -0.0    -0.0
EVILLA11 VILLAMEC     0 0 424.48   -18.3     0.1     0.0     0.0     0.0     0.0     0.0     0.0
EXOVE 11 XOVE         0 0 419.52     0.0     0.0     0.0     0.0     0.0     0.0     0.0     0.0
EABANT11 ABANTO       0 0 423.75     0.0     0.0     0.0     0.0     0.0     0.0     0.0     0.0
EALDEA11 ALDEADAV     0 2 419.92     0.1   166.4    32.4    47.2     0.0  -212.2    50.0   -80.0
EBUNIE11 BUNIEL       0 0 427.37     0.0     0.0     0.0     0.0     0.0     0.0     0.0     0.0
EALMAZ11 ALMAZAN      0 0 427.42  -109.3   -11.7     0.0     0.0     0.0     0.0     0.0     0.0
EAMORE11 AMOREBIE     0 2 420.05     1.2    80.4  -695.7   168.4     0.0  -786.4   250.8  -449.2
ESENGR11 SENGRACI     0 0 423.83     0.0   -10.9     0.0     0.0     0.0     0.0     0.0     0.0
EAZPEI11 AZPEITIA     0 0 420.98   118.3    -5.9     0.0     0.0     0.0     0.0     0.0     0.0
EGARO-11 GARO-BAR     0 0 426.26     0.0     0.0     0.0     0.0     0.0     0.0     0.0     0.0
ECASTJ11 CASTEJON     0 2 419.66     1.1    78.7  -701.8    77.1     0.0  -843.3   341.5  -608.4
EGATIC11 GATICA       0 0 421.85   150.0   -22.8     0.0     0.0     0.0     0.0     0.0     0.0
ECRODR11 CRODRIGO     0 0            0.0     0.0     0.0     0.0     0.0     0.0     0.0     0.0
ECERRA11 CERRATO      0 0 427.46     8.6   -16.8     0.0     0.0     0.0     0.0     0.0     0.0
EGRIJO11 GRIJOTA      0 2 425.88     0.0   342.5  -122.1    -0.0     0.0  -584.1    -0.0    -0.0
EGUENE11 GUENES       0 0 424.19     0.0     0.0     0.0     0.0     0.0     0.0     0.0     0.0
EHERNA11 HERNANI      0 0 420.16   224.5    -9.4     0.0     0.0     0.0     0.0     0.0     0.0
EHERRE11 HERRERA      0 0 425.19   -79.5   157.5     0.0     0.0     0.0     0.0     0.0     0.0
EHINOJ11 HINOJOSA     0 0            0.0     0.0     0.0     0.0     0.0     0.0     0.0     0.0
EICHAS11 ICHASO       0 0 421.94     0.0     0.0     0.0     0.0     0.0     0.0     0.0     0.0
ELCANT11 LCANTERA     0 2 419.77   -38.3    -4.8   -20.3    -0.0     0.0   -97.0    -0.0    -0.0
ELORA 11 LORA         0 2 425.68  -377.8    73.0     0.0     0.0     0.0    -0.0    -0.0    -0.0
ELA SE11 LA SERNA     0 0 419.77     0.0     0.0     0.0     0.0     0.0     0.0     0.0     0.0
EMUDAR11 MUDARRA      0 0 428.44   -84.6   346.1     0.0     0.0     0.0     0.0     0.0     0.0
EMURUA11 MURUARTE     0 0  420.9     0.0     0.0     0.0     0.0     0.0     0.0     0.0     0.0
EOLMEO11 OLMEDO       0 2 430.91     1.8    -9.3    -7.6    -0.0     0.0   -15.9    -0.0    -0.0
ESANTU11 SANTURCE     0 0 423.62     0.0     0.0     0.0     0.0     0.0     0.0     0.0     0.0
ETABAR11 TABARA       0 0 423.98    -2.3    -4.1     0.0     0.0     0.0     0.0     0.0     0.0
ETORDE11 TORDESIL     0 0 430.29     0.0     0.0     0.0     0.0     0.0     0.0     0.0     0.0
EVCRRE11 VCRRETAS     0 0 429.45     7.3   -10.9     0.0     0.0     0.0     0.0     0.0     0.0
EVILLR11 VILLARIN     0 0 422.49     0.0     0.0     0.0     0.0     0.0     0.0     0.0     0.0
EVIRTU11 VIRTUS       0 2 426.06  -105.2     4.8   -12.1    -0.0     0.0   -24.6    -0.0    -0.0
EVITOR11 VITORIA      0 0 421.61     0.0     0.0     0.0     0.0     0.0     0.0     0.0     0.0
EZIERB11 ZIERBENA     0 2 423.48     1.4    78.3  -714.5   194.4     0.0  -785.3   340.0  -500.0
EARAGO11 ARAGON       0 2 403.73  -211.4   278.8    -2.1    -0.0     0.0  -107.0    50.0   -92.0
EASCO 11 ASCO         0 2 404.07    75.1   435.0 -1948.9  -112.7     0.0 -1989.0   400.1  -600.1
EASCRS11 ASCO_RS      0 0 407.46     0.0     0.0     0.0     0.0     0.0     0.0     0.0     0.0
EBEGUE11 BEGUES       0 0 403.66     0.0   152.8     0.0     0.0     0.0     0.0     0.0     0.0
EBESCA11 BESCANO      0 0 403.82   139.9     6.9     0.0     0.0     0.0     0.0     0.0     0.0
ECARIN11 CARINENA     0 0  416.4     0.0     0.0     0.0     0.0     0.0     0.0     0.0     0.0
EESPLU11 ESPLUGA      0 2 402.81     5.4    -7.8   -11.8    -0.0     0.0  -273.8    -0.0    -0.0
ECALDE11 CALDERS      0 0 406.97   196.9   -10.1     0.0     0.0     0.0     0.0     0.0     0.0
EESCAT11 ESCATRON     0 2 410.97     1.5    68.9  -668.7    10.3     0.0  -804.3   360.0  -500.3
EMEZQU11 MEZQUITA     0 0 403.39     0.0   305.1     0.0     0.0     0.0     0.0     0.0     0.0
ELLOGA11 LLOGAIA      0 0 403.19   153.7    -3.9     0.0     0.0     0.0     0.0     0.0     0.0
EFUEND11 FUENDETO     0 0 413.67     0.0     0.0     0.0     0.0     0.0     0.0     0.0     0.0
EMAGAL11 MAGALLON     0 0 414.73     0.0   161.2     0.0     0.0     0.0     0.0     0.0     0.0
EMEDIN11 MEDINACE     0 0 424.99  -143.5     1.7     0.0     0.0     0.0     0.0     0.0     0.0
EMEQUI11 MEQUINEN     0 0 404.19     0.0     0.0     0.0     0.0     0.0     0.0     0.0     0.0
EMUNIE11 MUNIESA      0 2 408.78   -14.4    -3.4   -31.0    -0.0     0.0  -320.9    -0.0    -0.0
EPENAF11 PENAFLOR     0 0 408.57     0.0   156.5     0.0     0.0     0.0     0.0     0.0     0.0
EGARRA11 GARRAF       0 0 403.33   135.9     7.8     0.0     0.0     0.0     0.0     0.0     0.0
ELAFAR11 LAFARGA      0 0 403.39     0.0     0.0     0.0     0.0     0.0     0.0     0.0     0.0
EPIERO11 PIEROLA      0 2 404.14   127.0   179.3    -0.5    -0.0     0.0    -1.5    -0.0    -0.0
ERUBI 11 RUBI         0 0 403.82     0.0     0.0     0.0     0.0     0.0     0.0     0.0     0.0
EC.JAR11 C.JARDI      0 0  403.8     0.0     0.0     0.0     0.0     0.0     0.0     0.0     0.0
ERUEDA11 RUEDA        0 2 414.54   -10.1   164.8    -1.1    -0.0     0.0    -3.6    -0.0    -0.0
ESALLE11 SALLENTE     0 0 410.91     0.0     0.0     0.0     0.0     0.0     0.0     0.0     0.0
ESENTM11 SENTMENA     0 2 404.99   229.1   141.7    -0.4    -0.0     0.0    -1.2    -0.0    -0.0
ETERRE11 TERRER       0 2 422.65    -8.4    -4.9    -1.6    -0.0     0.0    -5.0    -0.0    -0.0
EMUDEJ11 MUDEJAR      0 0  404.5     0.0     0.0     0.0     0.0     0.0     0.0     0.0     0.0
EMAIAL11 MAIALS       0 0 404.32    -4.8    -1.6     0.0     0.0     0.0     0.0     0.0     0.0
EVANDE11 VANDELLO     0 2 407.83   173.4    23.4  -146.4   -13.5     0.0  -414.0   240.0  -400.0
EVIC  11 VIC          0 0 402.11    -0.0   -16.2     0.0     0.0     0.0     0.0     0.0     0.0
EVILAD11 VILADECA     0 0 403.58     0.0     0.0     0.0     0.0     0.0     0.0     0.0     0.0
EARGAS11 ARG_ASC      0 0  409.9     0.0     0.0     0.0     0.0     0.0     0.0     0.0     0.0
EARGEC11 ARG_ECT      0 0  409.9     0.0     0.0     0.0     0.0     0.0     0.0     0.0     0.0
EASCAR11 ASC_ARG      0 0  406.6     0.0     0.0     0.0     0.0     0.0     0.0     0.0     0.0
EASCVA11 ASC_VAN      0 0  406.6     0.0     0.0     0.0     0.0     0.0     0.0     0.0     0.0
ETMGAL11 TMGALLON     0 0 415.15     0.0     0.0     0.0     0.0     0.0     0.0     0.0     0.0
EALMAR11 ALMARAZ      0 2 427.97     6.7   117.9 -1146.3    73.5     0.0 -1441.3    80.0   -80.0
EANCHU11 ANCHUELO     0 2 428.25     8.7   -10.1    -1.7    -0.0     0.0    -3.5    -0.0    -0.0
EROMIC11 ROMICA       0 2 419.17  -117.4   -79.7   -11.8    -0.0     0.0   -23.7    -0.0    -0.0
EVNESC11 VNESCUDE     0 2  425.2   -87.5    -4.0    -1.5    -0.0     0.0    -3.0    -0.0    -0.0
EASOMA11 ASOMADA      0 2 414.65    92.9   -35.8   -16.3    -0.0     0.0   -42.7    -0.0    -0.0
EARANU11 ARANUELO     0 2 421.58     0.1   156.4   -83.6    -0.0     0.0  -250.0    -0.0    -0.0
EAYORA11 AYORA        0 0 411.14     0.0     0.0     0.0     0.0     0.0     0.0     0.0     0.0
EBENEJ11 BENEJAMA     0 2 409.83   128.1   147.3    -5.5    -0.0     0.0   -57.3    -0.0    -0.0
EADFMO11 ADFMONCA     0 0  423.0    -0.4     1.3     0.0     0.0     0.0     0.0     0.0     0.0
ECAMPA11 CAMPANAR     0 0  413.0  -151.1    -3.0     0.0     0.0     0.0     0.0     0.0     0.0
ECASTE11 CASTELLO     0 2 413.65     0.2     7.2  -153.7    64.8     0.0  -532.8   232.7  -577.6
ECATAD11 CATADAU      0 2 411.72   201.3    11.3    -2.1    -0.0     0.0    -4.9    -0.0    -0.0
ECARIL11 CARRIL       0 2 413.34    31.9   -16.2   -16.6    -0.0     0.0   -43.5    -0.0    -0.0
ECANAV11 CANAVERA     0 0 421.14   -98.8   -11.1     0.0     0.0     0.0     0.0     0.0     0.0
ECEDIL11 CEDILLO      0 2 415.28     0.0    -6.1   -25.4    -0.0     0.0   -76.0    -0.0    -0.0
ECOFRE11 COFRENTE     0 2 410.33     1.1   132.2 -1068.8   -66.0     0.0 -1063.9   365.5  -444.5
EELIAN11 ELIANA       0 2 413.75   246.6    15.1    -1.7     0.2     0.0    -4.1     0.2     0.2
EGODEL11 GODELLET     0 0 414.39     0.0     0.0     0.0     0.0     0.0     0.0     0.0     0.0
ENESCO11 NESCOMBR     0 0 414.24     0.0     0.0     0.0     0.0     0.0     0.0     0.0     0.0
EFUENC11 FUENCARR     0 0 430.13     0.0   173.4     0.0     0.0     0.0     0.0     0.0     0.0
EFUENT11 FUENTES      0 2 429.55   -38.7   -36.2   -29.1    -0.0     0.0   -58.7    -0.0    -0.0
EFAUSI11 FAUSITA      0 0 414.39     0.0     0.0     0.0     0.0     0.0     0.0     0.0     0.0
EJM.OR11 JM.ORIOL     0 2 418.63     0.0   164.3    -2.3    -0.0     0.0    -7.0    -0.0    -0.0
EBELIN11 BELINCHO     0 0  427.8     9.1   -22.0     0.0     0.0     0.0     0.0     0.0     0.0
EPENAR11 PENARRUB     0 0 413.37    -3.5     1.1     0.0     0.0     0.0     0.0     0.0     0.0
EMANZA11 MANZARES     0 0 440.22     0.0     0.0     0.0     0.0     0.0     0.0     0.0     0.0
ELA PL11 LA PLANA     0 0 413.76   179.0     5.5     0.0     0.0     0.0     0.0     0.0     0.0
EGALA211 GALAPAG      0 0 430.15     0.0     0.0     0.0     0.0     0.0     0.0     0.0     0.0
EGALAP11 GALAPAGA     0 0 430.15     0.0     0.0     0.0     0.0     0.0     0.0     0.0     0.0
ELASTR11 LASTRAS      0 2 431.85   -10.4   -67.6   -35.2    -0.0     0.0   -73.7    -0.0    -0.0
ELOECH11 LOECHES      0 0 428.49     0.0   344.3     0.0     0.0     0.0     0.0     0.0     0.0
ETOTAN11 TOTANA       0 2 413.28    34.8    26.4   -11.8    -0.0     0.0   -30.8    -0.0    -0.0
EMOREL11 MORELLA      0 2 405.18   -26.0    -2.1    -1.0     0.3     0.0    -2.8     0.3     0.3
ELA MU11 LA MUELA     0 3 407.46     2.8     4.1   196.2   542.1     0.0  -362.7  9999.0 -9999.0
EMINGL11 MINGLANI     0 2 416.03   -40.3   132.9    -1.5    -0.0     0.0    -3.0    -0.0    -0.0
EMONTS11 MONTESA      0 0  410.8     0.0     0.0     0.0     0.0     0.0     0.0     0.0     0.0
EMORAJ11 MORALEJA     0 0 427.19     0.0   171.1     0.0     0.0     0.0     0.0     0.0     0.0
EMORAT11 MORATA       0 0 427.79     0.0   171.6     0.0     0.0     0.0     0.0     0.0     0.0
EOLMED11 OLMEDILL     0 2 422.93  -229.2   130.2   -37.5    -0.0     0.0   -75.5    -0.0    -0.0
EPALMA11 PALMAR       0 0 413.14  -148.7   162.5     0.0     0.0     0.0     0.0     0.0     0.0
EPINIL11 PINILLA      0 0 414.04   -27.2   159.6     0.0     0.0     0.0     0.0     0.0     0.0
EMORVE11 MORVEDRE     0 2 414.87    37.5  -142.5  -367.3   114.5     0.0  -409.7   175.8  -281.6
EREQUE11 REQUENA      0 2 415.47     2.3   -11.7    -2.2    -0.0     0.0    -4.9    -0.0    -0.0
EROCAM11 ROCAMORA     0 2 411.73   222.8   161.6   -16.7    -0.0     0.0   -37.6    -0.0    -0.0
ESEGOV11 SEGOVIA      0 2 433.69     4.5    -5.1    -3.4    -0.0     0.0    -7.1    -0.0    -0.0
ESS RE11 SS REYES     0 0 430.36     0.0     0.0     0.0     0.0     0.0     0.0     0.0     0.0
ETORRE11 TORRENTE     0 2 415.03   108.2   -22.6    -6.1    -0.0     0.0   -14.5    -0.0    -0.0
ETREME11 TREMENDO     0 0 413.64     0.0     0.0     0.0     0.0     0.0     0.0     0.0     0.0
ELACER11 LACEREAL     0 2 430.07     6.1   167.9    -1.5    -0.0     0.0    -3.3    -0.0    -0.0
ETRILL11 TRILLO       0 2 426.29     2.9   301.5  -986.5   -60.8     0.0 -1003.4   -50.0  -300.0
EGAUSS11 GAUSSA       0 0  414.7     0.0     0.0     0.0     0.0     0.0     0.0     0.0     0.0
EVILLV11 VILLAVIC     0 0 428.84     0.0   172.4     0.0     0.0     0.0     0.0     0.0     0.0
ESAX  11 SAX          0 0  410.8     3.9    -8.6     0.0     0.0     0.0     0.0     0.0     0.0
EARCOS11 ARCOSFRT     0 2 419.55    -0.4    16.5  -350.0   160.9     0.0  -994.3   317.0  -627.1
EBALBO11 BALBOA       0 0 422.12     0.0     0.0     0.0     0.0     0.0     0.0     0.0     0.0
EBRAZA11 BRAZATOR     0 0  428.2     0.0   171.9     0.0     0.0     0.0     0.0     0.0     0.0
EDRODR11 DRODRIGO     0 0 418.07     0.0   163.9     0.0     0.0     0.0     0.0     0.0     0.0
EARCHI11 ARCHIDNA     0 0 417.28     2.1    -8.4     0.0     0.0     0.0     0.0     0.0     0.0
ECAPAR11 CAPARACE     0 0 413.44     0.0   160.3     0.0     0.0     0.0     0.0     0.0     0.0
EGBRAL11 GBRALTAR     0 0 421.01     0.0     0.0     0.0     0.0     0.0     0.0     0.0     0.0
EGUADA11 GUADAME      0 0 416.04     0.0   162.3     0.0     0.0     0.0     0.0     0.0     0.0
ECARTA11 CARTAMA      0 0 417.47     8.8    -3.1     0.0     0.0     0.0     0.0     0.0     0.0
EBIENV11 BIENVENI     0 2 420.99     0.0   166.2  -180.9    -0.0     0.0  -541.0    -0.0    -0.0
EBROVA11 BROVALES     0 0 422.11    12.3   137.4     0.0     0.0     0.0     0.0     0.0     0.0
EGUILL11 GUILLENA     0 0 419.25     0.0   164.8     0.0     0.0     0.0     0.0     0.0     0.0
EHUENE11 HUENEJA      0 2  413.5     0.1    -2.6   -86.2     0.5     0.0  -655.4    68.2   -28.8
EJORDA11 JORDANA      0 0 420.84     0.0     0.0     0.0     0.0     0.0     0.0     0.0     0.0
ELITOR11 LITORAL      0 2 409.43   129.3   167.7   -31.3    -0.0     0.0   -99.6    -0.0    -0.0
ETABER11 TABERNAS     0 0 411.24     0.0     0.0     0.0     0.0     0.0     0.0     0.0     0.0
ESASER11 SASERVAN     0 0 428.62     0.0     0.0     0.0     0.0     0.0     0.0     0.0     0.0
ECABRA11 CABRA        0 0 416.09     0.0   162.3     0.0     0.0     0.0     0.0     0.0     0.0
EPINAR11 PINARREY     0 0 420.99    -0.0   159.0     0.0     0.0     0.0     0.0     0.0     0.0
EVALDE11 VALDECAB     0 2 421.76   -58.3   295.1  -179.4    -0.0     0.0  -832.7    58.6   -21.4
EPALOS11 PALOS        0 2 411.71     2.2    66.5  -744.7   185.3     0.0  -780.1   308.8  -302.7
ETAJOE11 TAJOENCA     0 0 418.42     0.0     0.0     0.0     0.0     0.0     0.0     0.0     0.0
EPUEGU11 PUEGUZMA     0 2 417.94   -85.6    -5.8    -9.2    -0.0     0.0   -50.0    -0.0    -0.0
ERODAN11 RODANDAL     0 2 418.53    -4.8   -11.5    -7.8    -0.0     0.0  -152.2    -0.0    -0.0
ECARMO11 CARMONA      0 0 419.42     0.0     0.0     0.0     0.0     0.0     0.0     0.0     0.0
ETARIF11 TARIFA       0 0 429.01    -0.0  -105.0     0.0     0.0     0.0     0.0     0.0     0.0
EPTO C11 PTO CRUZ     0 2  425.5   -12.1   505.9    -2.1    -0.0     0.0   -42.7    -0.0    -0.0
ETARIF12 TARIFA-      0 0 427.21     0.0  -111.7     0.0     0.0     0.0     0.0     0.0     0.0
ECMITA11 CARMONIT     0 0 429.45     0.0     0.0     0.0     0.0     0.0     0.0     0.0     0.0
EECLO111 ECSLLOGA     0 2 403.19     0.0     0.0    -0.0    57.9     0.0 -2000.0   600.0  -358.2
EECLO211 ECSLLOGA     0 2 403.19     0.0     0.0    -0.0    57.9     0.0 -2000.0   600.0  -358.2
EAGUAY21 AGUAYO       0 2 236.37    -2.2     9.6   -45.3    90.1     0.0  -180.7   198.0  -172.0
EATIOS21 ATIOS        0 0 231.28   134.0    17.0     0.0     0.0     0.0     0.0     0.0     0.0
EAMOEI21 AMOEIRO      0 0 234.68    -3.8    -3.0     0.0     0.0     0.0     0.0     0.0     0.0
EADMEI21 ADMEIRAM     0 0 232.61     2.3    -0.9     0.0     0.0     0.0     0.0     0.0     0.0
EASTIL21 ASTILLER     0 2  234.5    20.0     0.0   -64.4    -0.0     0.0  -107.7    -0.0    -0.0
EARBIL21 ARBILLER     0 0 231.75     0.0     0.0     0.0     0.0     0.0     0.0     0.0     0.0
EBELES21 BELESAR      0 0 235.41    17.5    13.6     0.0     0.0     0.0     0.0     0.0     0.0
EEIRIS21 EIRIS        0 0 232.62    34.3    -3.4     0.0     0.0     0.0     0.0     0.0     0.0
ECARRI21 CARRIO       0 2 228.09    16.1    52.3  -244.6    69.7     0.0  -561.8   204.0  -404.0
ECHANT21 CHANTADA     0 2 235.39    15.2    -4.2   -27.2    -0.0     0.0   -54.0    -0.0    -0.0
ECACIC21 CACICEDO     0 0            0.0     0.0     0.0     0.0     0.0     0.0     0.0     0.0
ECARTE21 CARTELLE     0 0 233.69     0.0     0.0     0.0     0.0     0.0     0.0     0.0     0.0
ECASTL21 CASTRELO     0 2 233.92     8.3    -2.6   -98.1    -4.3     0.0  -230.8     9.3   -35.0
ECILLA21 CILLAMAY     0 2 239.07    12.0     0.0   -12.1    -0.0     0.0   -19.8    -0.0    -0.0
ECONSO21 CONSO        0 2 233.43     0.0     7.2  -125.4    40.0     0.0  -258.9    69.7  -141.6
ECTCOM21 CTCOMPOS     0 0 237.39    50.7   -23.2     0.0     0.0     0.0     0.0     0.0     0.0
EFRIEI21 FRIEIRA      0 2 232.62    61.4    15.3   -17.6     1.7     0.0   -17.5    10.0   -15.0
EGRELA21 GRELA-       0 2 232.49    68.3     5.8   -38.2    -0.0     0.0   -94.2    -0.0    -0.0
ELA LO21 LA LOMBA     0 0 237.04     0.0     0.0     0.0     0.0     0.0     0.0     0.0     0.0
ELOUSA21 LOUSAME      0 0  233.3    10.0    24.9     0.0     0.0     0.0     0.0     0.0     0.0
ELUBIA21 LUBIAN       0 0  245.9   -45.2     2.2     0.0     0.0     0.0     0.0     0.0     0.0
EMATAP21 MATAPORQ     0 2 238.77   -28.8   -28.7    -1.0    -0.0     0.0    -3.0     8.0    -8.0
EMEIRA21 MEIRAMA      0 0 232.61   -26.9     0.8     0.0     0.0     0.0     0.0     0.0     0.0
EMESON21 MESON V.     0 2 232.66    50.3   -17.9    -1.0    -0.0     0.0    -2.0    -0.0    -0.0
EMONTE21 MONTEARE     0 2 237.17     0.1    -6.6   -61.7    -0.0     0.0  -184.5    -0.0    -0.0
EMONTO21 MONTOUTO     0 2 232.35     0.0     0.0    -8.1    -0.0     0.0   -42.5    -0.0    -0.0
EPAZOS21 PAZOSBOR     0 0 231.55   189.1     0.5     0.0     0.0     0.0     0.0     0.0     0.0
EP.BIB21 P.BIBEY      0 0 235.05     0.0     0.0     0.0     0.0     0.0     0.0     0.0     0.0
EPDEMO21 PDEMOURO     0 2 232.05    -5.0     2.3   -15.1    -0.0     0.0   -31.5    -0.0    -0.0
EPENAG21 PENAGOS      0 0 234.45     0.0     0.0     0.0     0.0     0.0     0.0     0.0     0.0
EPERED21 PEREDA       0 2 233.59     0.1     3.5   -40.3    -0.0     0.0   -50.0    -0.0    -0.0
EPRADA21 PRADA        0 0 235.11     0.0     0.0     0.0     0.0     0.0     0.0     0.0     0.0
EDOSIL21 P.E.SIL      0 2  235.2     0.1     5.7   -65.5    -0.0     0.0   -91.8    -0.0    -0.0
EPSMIG21 PSMIGUEL     0 2 235.15    56.0    28.2   -38.2    -0.0     0.0   -84.1    -0.0    -0.0
EPUERT21 PUERTO       0 0 232.56    55.7     0.8     0.0     0.0     0.0     0.0     0.0     0.0
EREGOE21 REGOELLE     0 2  233.8   -46.7     3.6   -20.2    -0.0     0.0   -28.1    -0.0    -0.0
ES.AGU21 S.AGUSTI     0 0 235.08     5.2     1.1     0.0     0.0     0.0     0.0     0.0     0.0
ECAYET21 CAYETANO     0 0  233.5    50.8    -1.2     0.0     0.0     0.0     0.0     0.0     0.0
ES.EST21 S.ESTEBA     0 0 235.11     0.0     0.0     0.0     0.0     0.0     0.0     0.0     0.0
ES.PED21 S.PEDRO      0 0 234.95     0.0     0.0     0.0     0.0     0.0     0.0     0.0     0.0
ESABON21 SABON        0 2 232.21   124.0    31.6  -367.3    56.7     0.0  -391.3   166.2  -205.4
ESANAB21 SANABRIA     0 0 245.51     0.0    -2.2     0.0     0.0     0.0     0.0     0.0     0.0
ESANCO21 SANCOMPO     0 0 233.42    86.7   -28.0     0.0     0.0     0.0     0.0     0.0     0.0
ESANTI21 SANTIAGO     0 0 235.61     0.0     0.0     0.0     0.0     0.0     0.0     0.0     0.0
ESIERO21 SIERO        0 0 233.84    36.8   -23.3     0.0     0.0     0.0     0.0     0.0     0.0
ESOBRA21 SOBRADEL     0 0 236.14     0.0     0.0     0.0     0.0     0.0     0.0     0.0     0.0
ESOTOR21 SOTORIBE     0 0 232.69    12.9   -46.6     0.0     0.0     0.0     0.0     0.0     0.0
ESUIDO21 SUIDO        0 2 232.64   -60.2    16.5   -33.6    -0.0     0.0  -174.8    -0.0    -0.0
ETABIE21 TABIELLA     0 0 227.98   289.3    72.0     0.0     0.0     0.0     0.0     0.0     0.0
ETELLE21 TELLEDO      0 0 235.27   -15.1    -1.5     0.0     0.0     0.0     0.0     0.0     0.0
ETIBO 21 TIBO         0 2 230.71   112.8     9.8   -22.2    -0.0     0.0   -37.2    -0.0    -0.0
ETOMEZ21 TOMEZA       0 2 231.31    67.9   -15.5    -2.2    -0.0     0.0    -5.1    -0.0    -0.0
ETRIVE21 TRIVES       0 0  235.1    19.5    -7.2     0.0     0.0     0.0     0.0     0.0     0.0
EUNINS21 UNINSA       0 0 228.09    51.0    -3.7     0.0     0.0     0.0     0.0     0.0     0.0
EGUARD21 GUARDO       0 2 240.44    -4.0    -2.1    -1.0    -0.0     0.0    -1.6    -0.0    -0.0
EVELLE21 VELLE        0 2 234.51    23.8    -1.1    -0.5    -0.0     0.0    -1.1    -0.0    -0.0
EVILLA21 VILLABLI     0 0 236.46     1.8    -0.4     0.0     0.0     0.0     0.0     0.0     0.0
EVIMIA21 VIMIANZO     0 2 233.62    24.7    18.4  -159.2    -0.0     0.0  -238.7    -0.0    -0.0
EMZARI21 MAZARICO     0 0  233.9  -207.7     7.0     0.0     0.0     0.0     0.0     0.0     0.0
EABADI21 ABADIANO     0 0 238.16   155.2    18.6     0.0     0.0     0.0     0.0     0.0     0.0
EALDEA21 ALDEADAV     0 2 235.34     0.0    -2.7   -20.1     3.7     0.0  -134.3    35.0   -45.0
EALI  21 ALI          0 2 238.43    55.5    -6.9    -0.6    -0.0     0.0    -1.2    -0.0    -0.0
EARKAL21 ARKALE       0 0 242.92   129.0     4.8     0.0     0.0     0.0     0.0     0.0     0.0
EARKA221 ARKALE       0 0 249.11     0.0    -1.8     0.0     0.0     0.0     0.0     0.0     0.0
EARROA21 ARROYADA     0 2 240.49    16.7    -5.6   -14.3    -0.0     0.0   -30.2    -0.0    -0.0
EAYALA21 AYALA        0 0 239.88    75.8   -54.1     0.0     0.0     0.0     0.0     0.0     0.0
EBASAU21 BASAURI      0 0 238.76   198.1    16.1     0.0     0.0     0.0     0.0     0.0     0.0
EELGEA21 ELGEA        0 2 238.74    14.4     7.9   -24.9    -0.0     0.0   -62.6    -0.0    -0.0
ECORDO21 CORDOVIL     0 2 239.32   112.3    -8.4   -23.8    -0.0     0.0   -67.6    -0.0    -0.0
EFORJA21 FORJAS       0 0 238.45     6.7    -2.7     0.0     0.0     0.0     0.0     0.0     0.0
EGAMAR21 GAMARRA      0 0 238.44    84.6    11.0     0.0     0.0     0.0     0.0     0.0     0.0
ELCANT21 LCANTERA     0 2 234.99     0.1    -4.2   -30.3    -0.0     0.0   -79.8    -0.0    -0.0
EALCOM21 ALCOMOLA     0 2 238.61     0.0    -2.2   -47.6    11.4     0.0  -160.0    11.4    11.4
EGARO-21 GARONA       0 0 237.82     1.0     2.3     0.0     0.0     0.0     0.0     0.0     0.0
EGATIC21 GATICA       0 0 238.27   107.4   -11.2     0.0     0.0     0.0     0.0     0.0     0.0
EGUENE21 GUENES       0 0 238.78   104.9     2.4     0.0     0.0     0.0     0.0     0.0     0.0
EHARO 21 HARO         0 2 237.42    18.9    -1.3    -0.9    -0.0     0.0    -3.0    -0.0    -0.0
EHERNA21 HERNANI      0 2 241.61    47.3    -5.3    -1.3    -0.0     0.0    -2.7    -0.0    -0.0
EHERRE21 HERRERA      0 2 240.42    -2.2    -0.6    -1.6    -0.0     0.0    -3.4    -0.0    -0.0
EICHAS21 ICHASO       0 0 239.08   219.7    35.2     0.0     0.0     0.0     0.0     0.0     0.0
EJUNDI21 JUNDIZ       0 2 238.37    26.7    -4.1   -14.9    -0.0     0.0   -51.5    -0.0    -0.0
ELA JA21 LA JARA      0 0 239.15    32.0    -5.2     0.0     0.0     0.0     0.0     0.0     0.0
ELAGUA21 LAGUARDI     0 2 236.63     0.0     0.0    -9.7    -0.0     0.0  -129.3    -0.0    -0.0
ELA SE21 LA SERNA     0 2 234.99   -13.6    -2.4   -43.4    -0.0     0.0  -191.3    -0.0    -0.0
ELOGRO21 LOGRONO      0 2 236.29   110.5     8.0   -14.1    -0.0     0.0   -38.4    -0.0    -0.0
EMERCB21 MERCBENZ     0 0 238.41    19.1     2.1     0.0     0.0     0.0     0.0     0.0     0.0
EMIRAN21 MIRANDA      0 2 237.83     2.8    -4.5   -11.1    -0.0     0.0   -23.7    -0.0    -0.0
EMUD-I21 MUDARRAI     0 0 239.52     0.0     0.0     0.0     0.0     0.0     0.0     0.0     0.0
EMUDAR21 MUDARRA      0 2 239.49     0.0     0.0   -58.9    -0.0     0.0  -248.0    -0.0    -0.0
EORCOY21 ORCOYEN      0 2 239.34   183.5     7.8    -0.9    -0.0     0.0    -2.0    -0.0    -0.0
EOLITE21 OLITE        0 0            0.0     0.0     0.0     0.0     0.0  -106.5    -0.0    -0.0
EORTUE21 ORTUELLA     0 0 238.52   169.5    40.3     0.0     0.0     0.0     0.0     0.0     0.0
EPALEN21 PALENCIA     0 2 240.18    17.0    -3.7   -47.2    -0.0     0.0  -133.4    -0.0    -0.0
EMURUA21 MURUARTE     0 2 239.49     0.0     0.0    -0.9    -0.0     0.0    -1.8    -0.0    -0.0
EPOZAS21 POZASAL      0 2 239.71    -8.5    -5.5   -92.1    22.1     0.0  -198.3    22.1    22.1
EPUENT21 PUENTELA     0 0 237.91    23.0     5.1     0.0     0.0     0.0     0.0     0.0     0.0
EQUEL 21 QUEL         0 2 235.73     9.4    12.5   -25.8    -0.0     0.0   -82.8    -0.0    -0.0
ERENED21 RENEDO       0 2 240.04   102.0     9.6   -35.5    -0.0     0.0   -74.9    -0.0    -0.0
ERICOB21 RICOBAYO     0 2 240.17     4.4   -13.1  -103.9    -0.0     0.0  -203.2    -0.0    -0.0
ESANGU21 SANGUESA     0 2  239.3     0.0     0.0   -92.8    -0.0     0.0  -231.0    -0.0    -0.0
ESANTZ21 SANTIZ       0 2 240.79     0.0     0.0   -93.3    -0.0     0.0  -224.4    -0.0    -0.0
ESANTU21 SANTURCE     0 0 238.55     2.9   -15.3     0.0     0.0     0.0     0.0     0.0     0.0
ESAUCE21 SAUCELLE     0 2 236.74     6.9     0.7   -17.6     5.2     0.0   -67.6    20.0   -30.0
ESENGR21 SENGRACI     0 0 236.55     0.0     0.0     0.0     0.0     0.0     0.0     0.0     0.0
ESEQUE21 SEQUERO      0 2 236.52    46.3    -7.3   -42.1    -0.0     0.0  -212.3    -0.0    -0.0
ESIDEN21 SIDENORB     0 0 238.91    60.9   -61.8     0.0     0.0     0.0     0.0     0.0     0.0
ETAFAL21 TAFALLA      0 2 239.41    24.6     9.8   -56.5    -0.0     0.0  -217.6    -0.0    -0.0
ETAYAA21 TAYALA       0 0  239.5     0.0     0.0     0.0     0.0     0.0     0.0     0.0     0.0
ETAYAB21 TAYALA       0 0 239.56     0.0     0.0     0.0     0.0     0.0     0.0     0.0     0.0
ETBABA21 TBABCOK      0 0 238.64     0.0     0.0     0.0     0.0     0.0     0.0     0.0     0.0
EACEB121 ACEBIZKA     0 0 238.71     0.0     1.7     0.0     0.0     0.0     0.0     0.0     0.0
EBABCK21 BABCOCKA     0 0 238.71    38.2   -11.7     0.0     0.0     0.0     0.0     0.0     0.0
ETBABB21 TBABCOK      0 0 238.64     0.0     0.0     0.0     0.0     0.0     0.0     0.0     0.0
ETACE121 TACBIZK      0 0  238.7     0.0     0.0     0.0     0.0     0.0     0.0     0.0     0.0
ETACE221 TACBIZK      0 0 238.69     0.0     0.0     0.0     0.0     0.0     0.0     0.0     0.0
ETFOR121 TFORJAS      0 0 238.45     0.0     0.0     0.0     0.0     0.0     0.0     0.0     0.0
ETFOR221 TFORJAS      0 2 238.45     0.0     0.0    -2.1    -0.0     0.0    -4.4    -0.0    -0.0
ETGUEN21 TGUENES      0 0 238.79     0.0     0.0     0.0     0.0     0.0     0.0     0.0     0.0
ETMUD121 TMUDI        0 0 239.52     0.0     0.0     0.0     0.0     0.0     0.0     0.0     0.0
ETMUD221 TMUDI        0 0 239.52     0.0     0.0     0.0     0.0     0.0     0.0     0.0     0.0
ETORDE21 TORDESIL     0 2 240.86   -50.9    -4.3  -165.0    -0.0     0.0  -406.3    -0.0    -0.0
ETSANT21 TSANTURC     0 0 238.56     0.0     0.0     0.0     0.0     0.0     0.0     0.0     0.0
ETUDEL21 TUDELA       0 2 234.97     0.0     0.0   -29.6    -0.0     0.0   -94.2    -0.0    -0.0
EMONDR21 MONDRAGO     0 0 238.83     4.0    -4.0     0.0     0.0     0.0     0.0     0.0     0.0
EVALLD21 VALLAD.N     0 2 240.16    47.1    -4.9    -4.0    -0.0     0.0    -8.4    -0.0    -0.0
EVALLE21 VALLEJER     0 2 239.99     0.0     0.0   -42.4     4.0     0.0  -320.4     4.0     4.0
EVALPA21 VALPARAI     0 0 233.94     0.0     0.0     0.0     0.0     0.0     0.0     0.0     0.0
EVILLL21 VILLALBI     0 2 239.37   104.9    28.8   -65.5    15.7     0.0  -285.8    15.7    15.7
EVILLC21 VILLALCA     0 0 240.21    -0.7   -10.6     0.0     0.0     0.0     0.0     0.0     0.0
EVILLM21 VILLAMAY     0 0 240.16    60.3   -11.3     0.0     0.0     0.0     0.0     0.0     0.0
EVILLR21 VILLARIN     0 2 237.61    -1.6     1.3    -3.8    -0.0     0.0    -8.0    -0.0    -0.0
EVILLI21 VILLIMAR     0 2 238.92    77.5    13.9   -32.6     5.9     0.0  -156.7     5.9     5.9
EVITOR21 VITORIA      0 0 238.53    49.1     0.6     0.0     0.0     0.0     0.0     0.0     0.0
EZAMOR21 ZAMORA       0 2 240.56    31.3     2.9   -52.3    -0.0     0.0  -116.6    -0.0    -0.0
EZAMUD21 ZAMUDIO      0 0 238.43    20.1    -4.6     0.0     0.0     0.0     0.0     0.0     0.0
EZARAT21 ZARATAN      0 2 240.29    75.1     3.7   -21.9    -0.0     0.0   -46.0    -0.0    -0.0
EZUMAR21 ZUMARRAG     0 0  239.0     0.0     0.0     0.0     0.0     0.0     0.0     0.0     0.0
EABRER21 ABRERA       0 2 228.42    59.0    11.7    -0.7    -0.0     0.0    -2.1    -0.0    -0.0
EADRAL21 ADRALL       0 0 225.54    10.8    13.0     0.0     0.0     0.0     0.0     0.0     0.0
EAENOE21 AENOESTE     0 0 228.81     8.4     0.3     0.0     0.0     0.0     0.0     0.0     0.0
EBADAL21 BADALONA     0 0 228.87    52.7    -5.0     0.0     0.0     0.0     0.0     0.0     0.0
EALBAT21 ALBATARR     0 2  224.3    11.1    -2.2    -1.0    -0.0     0.0    -2.9    -0.0    -0.0
ELASEL21 LA SELVA     0 2 219.86    26.9     3.9    -0.6    -0.0     0.0    -1.7    -0.0    -0.0
EANOIA21 ANOIA        0 0 229.02    35.3     2.9     0.0     0.0     0.0     0.0     0.0     0.0
EBELLI21 BELLICEN     0 2  220.0    98.5     7.7  -131.2    80.3     0.0  -418.1   182.1  -384.6
EBSNUE21 BESOS.N      0 2 228.87   118.6    14.7  -327.1   -10.7     0.0  -411.9   185.3  -246.8
EBEGUE21 BEGUES       0 0 228.07     5.2     1.2     0.0     0.0     0.0     0.0     0.0     0.0
EBESCA21 BESCANO      0 0 224.44     0.0     0.0     0.0     0.0     0.0     0.0     0.0     0.0
EBIESC21 BIESCAS      0 2 234.92     0.1     1.2   -34.3     8.1     0.0   -61.4    24.9   -42.8
ECANYE21 CANYET       0 0 228.76     0.0     0.0     0.0     0.0     0.0     0.0     0.0     0.0
EAEBAR21 AEBARCEL     0 0 228.91    26.2    -8.8     0.0     0.0     0.0     0.0     0.0     0.0
ECARTJ21 CARTUJOS     0 2 230.83    71.3     1.7    -3.5    -0.0     0.0   -11.2    -0.0    -0.0
ECASTE21 CASTELLE     0 2 228.33    80.6     0.1    -0.5    -0.0     0.0    -1.3    -0.0    -0.0
ECENTL21 CENTELLE     0 2 227.59    44.9     3.9    -0.6    -0.0     0.0    -1.7    -0.0    -0.0
ECODON21 CODONYER     0 0 228.33    30.5     1.3     0.0     0.0     0.0     0.0     0.0     0.0
ECOLLB21 COLLBLAN     0 0 228.37   244.2   -10.2     0.0     0.0     0.0     0.0     0.0     0.0
ECSBIS21 CSBISBAL     0 2 227.97   149.1     8.6    -0.4    -0.0     0.0    -1.1    -0.0    -0.0
EEIXAM21 EIXAMPLE     0 0 228.78    50.8     1.0     0.0     0.0     0.0     0.0     0.0     0.0
EENTRE21 ENTRERRI     0 2 233.09    61.5    12.7   -18.7    -0.0     0.0   -74.5    -0.0    -0.0
EESQUE21 ESQUEDAS     0 2 234.02    64.8     3.4    -1.3    -0.0     0.0    -4.0    -0.0    -0.0
EESCAL21 ESCALONA     0 0 233.21     0.0     0.0     0.0     0.0     0.0     0.0     0.0     0.0
EESCAT22 ESCATROB     0 2 226.62   -24.7    70.3    -0.6    -0.0     0.0    -1.9    -0.0    -0.0
EESCUC21 ESCUCHA      0 2 226.39    15.9    13.9    -1.3     0.1     0.0    -4.1     0.1     0.1
EEFACU21 FACULTAT     0 0 228.45    22.7     5.4     0.0     0.0     0.0     0.0     0.0     0.0
EESPLU21 ESPLUGA      0 0 224.25     0.0     0.0     0.0     0.0     0.0     0.0     0.0     0.0
EESPAR21 ESPARTAL     0 2 230.14    18.5    -8.6   -78.6    -0.0     0.0  -162.9    -0.0    -0.0
EFOIX 21 FOIX         0 0 228.38    20.5    -1.3     0.0     0.0     0.0     0.0     0.0     0.0
EFRANQ21 FRANQUES     0 2 228.58   103.9     3.0    -1.4    -0.0     0.0    -3.9    -0.0    -0.0
EFUEND21 FUENDETO     0 2 229.84    48.8   -12.8   -11.0    -0.0     0.0  -361.8    -0.0    -0.0
EGRAMA21 GRAMANET     0 0 228.71    76.1    45.2     0.0     0.0     0.0     0.0     0.0     0.0
EGRADO21 GRADO        0 2  227.0    -2.3   -11.7     0.0     0.0     0.0    -9.2     7.0    -7.0
EGUIXE21 GUIXERES     0 0 228.84    20.7    -1.7     0.0     0.0     0.0     0.0     0.0     0.0
EGURRE21 GURREA       0 2 234.24    -1.9   -16.1   -28.3    -0.0     0.0  -361.4    -0.0    -0.0
EHIJAR21 HIJAR        0 2 226.86    -9.5     0.9   -35.4    -0.0     0.0  -113.0    -0.0    -0.0
EHOSPT21 HOSPTLET     0 0 228.79   139.2    10.3     0.0     0.0     0.0     0.0     0.0     0.0
EJALON21 JALON        0 2 233.59     0.0    -5.0   -38.7    -0.0     0.0  -565.0    -0.0    -0.0
EJUNED21 JUNEDA       0 2 224.36   -32.5     8.2    -6.1    -0.0     0.0   -33.6    -0.0    -0.0
ELA RO21 LA ROCA      0 2  229.4    74.9   -30.2    -0.5    -0.0     0.0    -1.5    -0.0    -0.0
ELANZA21 LANZASAG     0 0 235.29   -14.3     0.2     0.0     0.0     0.0     0.0     0.0     0.0
EVIENT21 VIENTOS      0 2 231.93     0.0    -8.2   -32.6    -0.0     0.0  -499.1    -0.0    -0.0
EL.LEO21 L.LEONES     0 0 233.47    21.4    -8.8     0.0     0.0     0.0     0.0     0.0     0.0
ELLAVO21 LLAVORSI     0 2 226.55     7.3     3.6   -19.8    15.0     0.0   -84.7    40.0   -50.0
ETORS221 TORSEGR      0 0            0.0     0.0     0.0     0.0     0.0     0.0     0.0     0.0
EMANGR21 MANGRANE     0 2 224.29    73.8   -13.6    -1.3    -0.0     0.0    -3.9    -0.0    -0.0
ETORSE21 TORSEGRE     0 0            0.0     0.0     0.0     0.0     0.0    -3.5     0.2    -0.2
EMAGAL21 MAGALLON     0 0 234.42     3.5    -1.0     0.0     0.0     0.0     0.0     0.0     0.0
EMAGA221 MAGALLO      0 0  234.4     0.0     0.0     0.0     0.0     0.0     0.0     0.0     0.0
EMAGNA21 MAGANA       0 2 236.58     0.0    -0.9   -74.5    -0.0     0.0  -180.4    -0.0    -0.0
EMANFI21 MANFIGUE     0 0 228.07    72.8    -1.6     0.0     0.0     0.0     0.0     0.0     0.0
EMARAG21 MARAGALL     0 2 228.76    55.5     6.8    -0.4    -0.0     0.0    -1.0    -0.0    -0.0
EMARIA21 MARIA        0 2  231.2     0.0    -1.0    -3.4    -0.0     0.0  -135.8    -0.0    -0.0
EMATA 21 MATA         0 0 228.83   126.7     4.9     0.0     0.0     0.0     0.0     0.0     0.0
EMEDIA21 MEDIANO      0 2 228.16     0.0     1.7   -21.8   -10.0     0.0   -33.5    10.0   -10.0
EMEQUI21 MEQUINEN     0 0 226.78     4.9    -5.0     0.0     0.0     0.0     0.0     0.0     0.0
EMEZQU21 MEZQUITA     0 2 226.42    19.1   -33.5   -70.7    -0.0     0.0  -180.3    -0.0    -0.0
ECERVE21 CERVELLO     0 0 228.18    52.7    -2.3     0.0     0.0     0.0     0.0     0.0     0.0
EMONCA21 MONCAYO      0 2 236.01   -36.5    11.7   -55.0    -0.0     0.0  -143.5    -0.0    -0.0
EMONTL21 MONTBLAN     0 2 224.13    33.3     7.3    -1.0    -0.0     0.0   -16.0    -0.0    -0.0
EMONTT21 MONTETOR     0 2 230.82    99.4    47.1    -7.1    -0.0     0.0  -112.3    -0.0    -0.0
EAVEZA21 AVEZARAG     0 2 230.67     4.3    -3.9    -2.1    -0.0     0.0   -48.0    -0.0    -0.0
EMONZO21 MONZON       0 2 224.63    -8.7    97.2    -0.8    -0.0     0.0    -2.2    -0.0    -0.0
EAUBAL21 ELSAUBAL     0 0 221.28     3.1    -2.8     0.0     0.0     0.0     0.0     0.0     0.0
EMOTOR21 MOTORS       0 2 228.85    48.9    -4.7    -1.5    -0.0     0.0    -4.4    -0.0    -0.0
ENUDOV21 NUDOVIAR     0 0 228.65     4.5    -2.0     0.0     0.0     0.0     0.0     0.0     0.0
ETANGC21 TANGCATA     0 0 228.87    43.9    -8.5     0.0     0.0     0.0     0.0     0.0     0.0
EP.SUE21 P.SUERT      0 0  229.9   -32.8   -23.4     0.0     0.0     0.0     0.0     0.0     0.0
EPALAU21 PALAU        0 0 228.36    28.7    -4.3     0.0     0.0     0.0     0.0     0.0     0.0
EPENAF21 PENAFLOR     0 0 231.66     0.0     0.0     0.0     0.0     0.0     0.0     0.0     0.0
EPERAF21 PERAFORT     0 2 220.63   180.7    28.9  -165.5    -0.0     0.0  -215.4    -0.0    -0.0
EPIERO21 PIEROLA      0 0 227.28     0.0     0.0     0.0     0.0     0.0     0.0     0.0     0.0
EPLAZA21 PLAZA        0 2 232.83   102.8   -62.8    -5.8    -0.0     0.0  -100.6    -0.0    -0.0
ELA PO21 LA POBLA     0 0 228.77     0.0     0.0     0.0     0.0     0.0     0.0     0.0     0.0
EPUJAL21 PUJALT       0 2 229.08     0.0     0.0    -6.4    -0.0     0.0  -127.3    -0.0    -0.0
EPUIGP21 PUIGPELA     0 2  223.1    43.7     3.5    -2.5    -0.0     0.0    -7.1    -0.0    -0.0
ER.CAL21 R.CALDES     0 0 228.16    33.4     3.8     0.0     0.0     0.0     0.0     0.0     0.0
ELAFAR21 LAFARGA      0 0 225.27   391.1   -81.8     0.0     0.0     0.0     0.0     0.0     0.0
ERIBAR21 RIBARROJ     0 2 227.01    14.0    -5.2   -29.8    -5.3     0.0  -342.6    36.4   -33.6
ERUBI 21 RUBI         0 0  228.6    66.2    -3.0     0.0     0.0     0.0     0.0     0.0     0.0
ERUBIO21 RUBIO        0 0  227.9    -4.2     0.0     0.0     0.0     0.0     0.0     0.0     0.0
EC.JAR21 C.JARDI      0 2 228.51    33.5    -7.0    -0.9    -0.0     0.0    -2.6    -0.0    -0.0
ES.AND21 S.ANDREU     0 0 228.73   135.3     7.5     0.0     0.0     0.0     0.0     0.0     0.0
EVILAD21 VILADECA     0 0 228.71   100.7    -2.5     0.0     0.0     0.0     0.0     0.0     0.0
ESAGRE21 SAGRERA      0 2 228.83     3.1    -1.9    -0.5    -0.0     0.0    -1.3    -0.0    -0.0
ES.BOI21 S.BOI        0 2 228.35   108.0    -1.1    -0.4    -0.0     0.0    -1.3    -0.0    -0.0
ES.CEL21 S.CELONI     0 0 224.26   142.6    24.9     0.0     0.0     0.0     0.0     0.0     0.0
ESANCU21 SANCUGAT     0 0 228.28    45.9    -2.1     0.0     0.0     0.0     0.0     0.0     0.0
ES.FOS21 S.FOST       0 0 228.17   249.4    15.5     0.0     0.0     0.0     0.0     0.0     0.0
ES.JUS21 S.JUST       0 0 228.67    45.5     0.6     0.0     0.0     0.0     0.0     0.0     0.0
ESABIN21 SABINANI     0 2 234.36    29.7    43.1    -1.1    -0.0     0.0    -3.6    -0.0    -0.0
ESENTM21 SENTMENA     0 2 228.25    40.2   -16.8    -0.9    -0.0     0.0    -2.6    -0.0    -0.0
ESUBIR21 SUBIRATS     0 2 226.22    37.1     1.2    -0.6    -0.0     0.0    -1.8    -0.0    -0.0
ECERCS21 CERCS        0 0  224.2    46.2    11.1     0.0     0.0     0.0     0.0     0.0     0.0
EBAROV21 BAROVIVE     0 0 228.73     0.7    -1.6     0.0     0.0     0.0     0.0     0.0     0.0
ECONST21 CONSTANT     0 0 220.27    34.2    -1.3     0.0     0.0     0.0     0.0     0.0     0.0
ETARRA21 TARRAGON     0 2 219.67   188.1    34.0    -0.5    -0.0     0.0    -1.4    -0.0    -0.0
ETCELS21 TCELSA       0 0 228.62     6.7    -3.9     0.0     0.0     0.0     0.0     0.0     0.0
ETESCA21 TESCALON     0 0 233.22   -48.3    23.3     0.0     0.0     0.0     0.0     0.0     0.0
ETSESU21 TSESUE       0 2 233.13     1.1    -3.6   -29.7    13.3     0.0   -87.6    17.1   -47.7
EGAVAR21 GAVARROT     0 0  228.5     0.0     0.0     0.0     0.0     0.0     0.0     0.0     0.0
ETRINI21 TRINITAT     0 0 228.74    87.1     0.7     0.0     0.0     0.0     0.0     0.0     0.0
ETNTBS21 TNT_BSN      0 0 228.74     0.0     0.0     0.0     0.0     0.0     0.0     0.0     0.0
ETNTGR21 TNT_GRM      0 0 228.74     0.0     0.0     0.0     0.0     0.0     0.0     0.0     0.0
ETREVA21 TREVAGO      0 2 236.51   -44.1     2.5   -27.2    -0.0     0.0   -49.5    -0.0    -0.0
EURGEL21 URGELL       0 0 228.59    88.4     7.3     0.0     0.0     0.0     0.0     0.0     0.0
EVCONE21 VCONEJOS     0 2 226.47     0.0     0.0   -48.5    -0.0     0.0  -106.5    -0.0    -0.0
EVIC  21 VIC          0 2 229.59   149.2    29.1    -0.4    -0.0     0.0    -1.2    -0.0    -0.0
EVPENE21 PENEDES      0 2 226.79    29.8     3.1    -0.6    -0.0     0.0    -1.7    -0.0    -0.0
EVILLN21 VILLANUE     0 2 233.22     4.3   -44.7    -3.8    -0.0     0.0   -12.0    -0.0    -0.0
EZONAF21 ZONAFRAN     0 0 228.92     0.0   -23.0     0.0     0.0     0.0     0.0     0.0     0.0
EZAL  21 ZAL          0 2 228.91    39.1    -8.2    -1.0    -0.0     0.0    -2.8    -0.0    -0.0
EVILAN21 VILANOVA     0 0 228.83    84.0     3.3     0.0     0.0     0.0     0.0     0.0     0.0
EACECA21 ACECA        0 2 243.19     6.3   -31.1   -62.5    -0.0     0.0  -109.4    -0.0    -0.0
EAENA 21 AENA         0 0  243.1    19.5    -2.9     0.0     0.0     0.0     0.0     0.0     0.0
EALARC21 ALARCOS      0 2 247.12   -29.8   -15.0   -74.7    -0.0     0.0  -130.9    -0.0    -0.0
EALBAL21 ALBAL        0 2 231.99    12.2    -0.9    -2.0    -0.0     0.0    -4.7    -0.0    -0.0
EALCIR21 ALCIRA       0 2 230.31     0.0     0.0    -0.7    -0.0     0.0    -1.8    -0.0    -0.0
EALGET21 ALGETE       0 0 243.97     4.2    -0.2     0.0     0.0     0.0     0.0     0.0     0.0
EALDAY21 ALDAIA       0 0 233.23    27.1     2.9     0.0     0.0     0.0     0.0     0.0     0.0
EALMAR21 ALMARAZ      0 0 241.63    12.0     3.4     0.0     0.0     0.0     0.0     0.0     0.0
EANOVE21 ANOVER       0 2 243.25    11.1    -5.0    -2.0    -0.0     0.0    -3.5    -0.0    -0.0
EARGAN21 ARGANDA      0 0 242.91    94.5    -1.6     0.0     0.0     0.0     0.0     0.0     0.0
EALCOB21 ALCOBEND     0 0 243.22    54.6    -7.1     0.0     0.0     0.0     0.0     0.0     0.0
EARR.V21 ARR.VEGA     0 0  242.2    58.5   110.2     0.0     0.0     0.0     0.0     0.0     0.0
EAZCA 21 AZCA         0 2 243.55    23.0    -6.3    -3.6    -0.0     0.0    -7.7    -0.0    -0.0
EBECHI21 BECHI        0 2 230.17    20.2     1.4    -2.8    -0.0     0.0    -6.6    -0.0    -0.0
EBENEJ21 BENEJAMA     0 0  234.0     0.0     0.0     0.0     0.0     0.0     0.0     0.0     0.0
EBENAD21 BENADRES     0 0 229.33    20.8    -3.1     0.0     0.0     0.0     0.0     0.0     0.0
EARAVA21 ARAVACA      0 0  240.5    47.5   -10.3     0.0     0.0     0.0     0.0     0.0     0.0
EBOADI21 BOADILLA     0 0 239.86    25.4   -13.3     0.0     0.0     0.0     0.0     0.0     0.0
EAGUAC21 AGUACATE     0 0  244.0    18.2    -1.6     0.0     0.0     0.0     0.0     0.0     0.0
EBENIF21 BENIFERR     0 0 233.46    58.9     4.9     0.0     0.0     0.0     0.0     0.0     0.0
ECORRA21 CASACAMP     0 0 243.52     0.0     0.0     0.0     0.0     0.0     0.0     0.0     0.0
EC.FRE21 C.FREGAC     0 2 240.85    32.4    -1.9    -1.0    -0.0     0.0    -2.1    -0.0    -0.0
ECACER21 CACERES      0 2 236.76    51.4   -16.8   -13.8    -0.0     0.0   -41.3    -0.0    -0.0
ECDEPO21 CDEPORTI     0 0 244.02    31.0    -1.4     0.0     0.0     0.0     0.0     0.0     0.0
ECAMPN21 CAMPONAC     0 2 243.54    55.4   -21.9    -0.8    -0.0     0.0    -1.7    -0.0    -0.0
ECAMPO21 CAMPOAMO     0 2 233.21    53.5   -11.4    -1.1    -0.0     0.0    -2.6    -0.0    -0.0
ELACER21 LACEREAL     0 0 241.85     0.0     0.0     0.0     0.0     0.0     0.0     0.0     0.0
ECANIL21 CANILLEJ     0 0 243.45    87.5   -12.8     0.0     0.0     0.0     0.0     0.0     0.0
ECERPA21 CERPLATN     0 0 243.56   121.6     3.9     0.0     0.0     0.0     0.0     0.0     0.0
ECATAD21 CATADAU      0 0 230.13     0.0     0.0     0.0     0.0     0.0     0.0     0.0     0.0
ECANTA21 CANTALAR     0 0 233.71    18.8    -4.4     0.0     0.0     0.0     0.0     0.0     0.0
ECOSLA21 COSLADA      0 0 243.29    46.2   -11.7     0.0     0.0     0.0     0.0     0.0     0.0
ECASAT21 CASATEJA     0 2 241.67    11.8    -2.1   -23.2    -0.0     0.0  -113.0    -0.0    -0.0
EPRADO21 ANTONIO      0 0 243.93    44.8    -1.8     0.0     0.0     0.0     0.0     0.0     0.0
ECOTO 21 EL COTO      0 0 243.54    38.9   -15.9     0.0     0.0     0.0     0.0     0.0     0.0
EEALMA21 EALMARAZ     0 2 241.56   -86.1    48.2   -53.8    -0.0     0.0  -187.1     8.0    -7.0
ENOVEL21 NOVELDA      0 0 233.78    25.6     5.7     0.0     0.0     0.0     0.0     0.0     0.0
EARGAZ21 ARGANZUE     0 0 243.92    30.5    -2.7     0.0     0.0     0.0     0.0     0.0     0.0
EELIAN21 ELIANA       0 0 234.88    65.5    17.7     0.0     0.0     0.0     0.0     0.0     0.0
EELCHE21 ELCHE        0 2 233.78     0.0     1.7    -1.9    -0.0     0.0    -4.6    -0.0    -0.0
EELEMP21 ELEMPERA     0 2 246.42    10.7    -1.0    -1.2    -0.0     0.0    -2.2    -0.0    -0.0
EEL PI21 EL PILAR     0 0 244.02   122.1   -19.9     0.0     0.0     0.0     0.0     0.0     0.0
EFAUS221 FAUSITA      0 0 231.74     0.0     0.0     0.0     0.0     0.0     0.0     0.0     0.0
ELA ES21 LA ESTRE     0 0 244.07   106.5   -31.6     0.0     0.0     0.0     0.0     0.0     0.0
EFAUSI21 FAUSITA      0 0 231.74    42.3     4.3     0.0     0.0     0.0     0.0     0.0     0.0
EFAUST21 FAUSITA      0 0 231.74     0.0     0.0     0.0     0.0     0.0     0.0     0.0     0.0
EF.S.L21 F.S.LUIS     0 0 232.99    98.9    -1.3     0.0     0.0     0.0     0.0     0.0     0.0
EF.MUE21 F.MUESTR     0 2 233.75    51.5    -9.5    -0.6    -0.0     0.0    -1.5    -0.0    -0.0
EFORTU21 FORTUNA      0 2  240.9    51.5    -3.1    -1.3    -0.0     0.0    -2.9    -0.0    -0.0
EBUENA21 BUENAVIS     0 0 241.41    12.8    -4.4     0.0     0.0     0.0     0.0     0.0     0.0
EEBORA21 EBORA        0 0 243.78     3.3    -1.9     0.0     0.0     0.0     0.0     0.0     0.0
EFUENC21 FUENCARR     0 0 243.85   183.6   -70.0     0.0     0.0     0.0     0.0     0.0     0.0
EFUENL21 FUENLABR     0 2 241.24    22.3     1.7   -33.2    -0.0     0.0   -38.7    -0.0    -0.0
ECARYU21 CARYUELA     0 2 243.78    27.1     1.7  -112.7    -0.0     0.0  -338.4    28.0   -18.0
EGALAP21 GALAPAGA     0 0  240.7     0.0     0.0     0.0     0.0     0.0     0.0     0.0     0.0
EGANDI21 GANDIA       0 0 231.16   147.0   -22.2     0.0     0.0     0.0     0.0     0.0     0.0
EGETAF21 GETAFE       0 0 241.95    35.4   -10.9     0.0     0.0     0.0     0.0     0.0     0.0
ELSOLA21 LASOLANA     0 2 248.07     5.2    -1.8   -30.1    -0.0     0.0   -52.8    -0.0    -0.0
EASJUA21 ARSNJUA      0 2 243.52     0.2     1.1   -81.5    -0.0     0.0  -233.0    25.0   -25.0
EGODEL21 GODELLET     0 0 230.47     0.0     0.0     0.0     0.0     0.0     0.0     0.0     0.0
EDAGAN21 DAGANZO      0 2 242.93    21.8    -5.0    -2.0    -0.0     0.0    -4.3    -0.0    -0.0
EELHOR21 ELHORNIL     0 0 243.21    -3.4     1.1     0.0     0.0     0.0     0.0     0.0     0.0
EHORTA21 HORTALEZ     0 0 243.45    37.5    -9.6     0.0     0.0     0.0     0.0     0.0     0.0
EBERNA21 BERNAT       0 0 230.31    24.2   -11.3     0.0     0.0     0.0     0.0     0.0     0.0
EHUELV21 HUELVES      0 2 242.94   -11.8     5.7   -22.9    -0.0     0.0   -76.7    -0.0    -0.0
EBALSI21 BALSICAS     0 0 228.79     0.0     0.0     0.0     0.0     0.0     0.0     0.0     0.0
EINGEN21 INGENIO      0 2 229.27    91.3    -7.2    -1.9    -0.0     0.0    -4.4    -0.0    -0.0
EAQUA 21 AQUA         0 0 233.19    75.1   -17.6     0.0     0.0     0.0     0.0     0.0     0.0
EJIJON21 JIJONA       0 2 233.54   119.7   -22.1   -12.5    -0.0     0.0   -29.6    -0.0    -0.0
EJM.OR21 JM.ORIOL     0 2 230.61     7.7    91.4  -148.6    -0.0     0.0  -444.3    -0.0    -0.0
ELA PL21 LA PLANA     0 2 229.34   149.5    26.8    -2.5    -0.0     0.0    -5.9    -0.0    -0.0
ELEGAN21 LEGANES      0 0 240.96    68.7   107.1     0.0     0.0     0.0     0.0     0.0     0.0
ELOECH21 LOECHES      0 2 242.85   268.5   -93.2    -6.4    -0.0     0.0   -12.9    -0.0    -0.0
ELUCER21 LUCERO       0 0 240.68    81.7   -19.0     0.0     0.0     0.0     0.0     0.0     0.0
EMANZA21 MANZARES     0 2 242.52    69.7   -24.5  -215.5     0.4     0.0  -577.2    13.2    -9.3
EMAJAD21 MAJADAHO     0 0 240.36   194.5   -78.1     0.0     0.0     0.0     0.0     0.0     0.0
EMBECE21 MBECERRA     0 0 243.56    51.5   -16.7     0.0     0.0     0.0     0.0     0.0     0.0
EMEDIO21 MEDIODIA     0 0 243.79    31.3    19.6     0.0     0.0     0.0     0.0     0.0     0.0
EMAZAR21 MAZARRED     0 0 243.87    57.8     7.8     0.0     0.0     0.0     0.0     0.0     0.0
EMECO 21 MECO         0 2 243.23    59.5   -46.3   -19.3    -0.0     0.0   -39.1    -0.0    -0.0
EMELAN21 MELANCOL     0 0  243.9   102.7   -14.2     0.0     0.0     0.0     0.0     0.0     0.0
EMORA 21 MORA         0 2 244.76     9.1    -2.7    -4.6    -0.0     0.0    -8.1    -0.0    -0.0
EMIRAS21 MIRASIER     0 0 244.08    50.5   -13.8     0.0     0.0     0.0     0.0     0.0     0.0
EMORAJ21 MORALEJA     0 2 240.72    72.9   235.9    -1.7    -0.0     0.0    -3.5    -0.0    -0.0
EMORVD21 MORVEDRE     0 0  227.9     0.0     0.0     0.0     0.0     0.0     0.0     0.0     0.0
EMORAT21 MORATA       0 0 241.51     9.9   128.6     0.0     0.0     0.0     0.0     0.0     0.0
EARDOZ21 ARDOZ        0 2 244.64    81.8   -42.7    -1.5    -0.0     0.0    -3.1    -0.0    -0.0
EHOYAM21 HOYAMORE     0 2 232.58    38.4   -10.6    -3.2    -0.0     0.0    -8.5    -0.0    -0.0
ENORTE21 NORTE        0 0 243.55    58.7    -5.2     0.0     0.0     0.0     0.0     0.0     0.0
EPRADI21 PRADILLO     0 2 240.29    49.6     9.2    -0.8    -0.0     0.0    -1.6    -0.0    -0.0
EMTEBE21 MTEBELLO     0 0 233.86    89.2    -7.2     0.0     0.0     0.0     0.0     0.0     0.0
EOLMED21 OLMEDILL     0 2 241.33     6.7   -13.9   -10.4    -0.0     0.0   -20.4    -0.0    -0.0
EPALMR21 PALMAR       0 0 228.61     0.0     0.0     0.0     0.0     0.0     0.0     0.0     0.0
EPALM221 PALMAR       0 0 228.61     0.0     0.0     0.0     0.0     0.0     0.0     0.0     0.0
EPCENT21 PCENTRAL     0 0 233.44    38.7     3.5     0.0     0.0     0.0     0.0     0.0     0.0
EPALAF21 PALAFOX      0 0 244.03    45.9    -4.3     0.0     0.0     0.0     0.0     0.0     0.0
EPRADS21 PRADSANT     0 0 239.76    35.4    -3.8     0.0     0.0     0.0     0.0     0.0     0.0
EPALMA21 PALMAR       0 2 228.64   173.6   -81.6    -6.8    -0.0     0.0   -17.9    -0.0    -0.0
EPALME21 PALMERAL     0 2 233.55    61.4   -20.9    -2.9    -0.0     0.0    -6.8    -0.0    -0.0
EPATRA21 PATRAIX      0 0 232.93    22.8    -9.2     0.0     0.0     0.0     0.0     0.0     0.0
EPETRE21 PETREL       0 2 233.63    74.2    15.6    -7.2    -0.0     0.0   -17.1    -0.0    -0.0
EPOLIO21 POLIGONC     0 0 244.03    42.5    -5.3     0.0     0.0     0.0     0.0     0.0     0.0
EPICON21 PICON        0 2 247.41    13.8    -8.5    -1.6    -0.0     0.0    -2.8    -0.0    -0.0
EPINTO21 PINTO        0 2 237.66    64.6   112.6    -0.7    -0.0     0.0    -1.4    -0.0    -0.0
EPROSP21 PROSPERI     0 0 243.56     0.0     0.0     0.0     0.0     0.0     0.0     0.0     0.0
EPARLA21 PARLA        0 0 238.59    14.5     4.1     0.0     0.0     0.0     0.0     0.0     0.0
EPINTA21 PINTOAYU     0 2 243.23     8.9    -6.7    -1.2    -0.0     0.0    -2.5    -0.0    -0.0
EPRINC21 PRINCESA     0 0 243.59    60.6    11.7     0.0     0.0     0.0     0.0     0.0     0.0
EPSFER21 PSFERNAN     0 0 242.92    29.1   -18.5     0.0     0.0     0.0     0.0     0.0     0.0
EQUART21 QUARTPOB     0 2 233.67    25.3   -11.7    -1.0    -0.0     0.0    -2.3    -0.0    -0.0
EMORVE21 MORVEDRB     0 0  227.9    14.9    -1.6     0.0     0.0     0.0     0.0     0.0     0.0
EPQING21 PQINGENI     0 0 243.87    15.3    -1.0     0.0     0.0     0.0     0.0     0.0     0.0
ERETAM21 RETAMAR      0 0 241.49   151.8   -58.1     0.0     0.0     0.0     0.0     0.0     0.0
EROJAL21 ROJALES      0 2 233.69    56.2   -17.5    -2.5    -0.0     0.0    -5.9    -0.0    -0.0
ES.VIC21 S.VICENT     0 2 232.85   108.3    57.1    -0.5    -0.0     0.0    -1.1    -0.0    -0.0
ESMSAL21 SMSALINA     0 0 233.56    66.8   -66.8     0.0     0.0     0.0     0.0     0.0     0.0
ES.P.P21 S.P.PINA     0 2 232.97    47.9    -1.8    -2.0    -0.0     0.0    -5.4    -0.0    -0.0
ESAGUN21 SAGUNTO      0 0 231.55    58.1   -25.8     0.0     0.0     0.0     0.0     0.0     0.0
ESALAD21 SALADAS      0 0 233.76    16.6     3.2     0.0     0.0     0.0     0.0     0.0     0.0
ESIMAN21 SIMANCAS     0 0 243.52    59.7   -10.8     0.0     0.0     0.0     0.0     0.0     0.0
ESMSA221 SMSALIN      0 0 233.52     0.0     0.0     0.0     0.0     0.0     0.0     0.0     0.0
ESS RE21 SS REYES     0 0 242.62     0.0     0.0     0.0     0.0     0.0     0.0     0.0     0.0
ETALAV21 TALAVERA     0 2 242.83    18.3    -6.8   -49.1    28.7     0.0  -112.2    28.7   -28.7
ETLEGA21 TLEGANES     0 0 240.96     0.0     0.0     0.0     0.0     0.0     0.0     0.0     0.0
ETORRC21 TORRECIL     0 2 242.76     0.0     0.0   -23.7    -0.0     0.0   -25.4    -0.0    -0.0
ETORRJ21 TORREJON     0 2  240.2     0.3     8.2   -64.8    11.7     0.0   -64.4    40.0   -36.0
ETREMN21 TREMENDO     0 0 233.04     0.0     0.0     0.0     0.0     0.0     0.0     0.0     0.0
ETORLL21 TORLLANO     0 0 233.76     0.0     0.0     0.0     0.0     0.0     0.0     0.0     0.0
ETREMB21 TREMENDO     0 0 233.04     0.0     0.0     0.0     0.0     0.0     0.0     0.0     0.0
ETORRN21 TORRENTE     0 0 232.27    83.1   -12.5     0.0     0.0     0.0     0.0     0.0     0.0
ETORRI21 TORRIJOS     0 2 244.51   -16.8    -6.7   -57.4    -0.0     0.0  -100.8    -0.0    -0.0
ETCGIS21 TRCANGIS     0 0  242.0    70.1   -16.7     0.0     0.0     0.0     0.0     0.0     0.0
ET3T.C21 TCANTOS      0 2  242.0    87.1   -33.4    -1.9    -0.0     0.0    -4.0    -0.0    -0.0
ETRUJI21 TRUJILLO     0 2 242.55   -14.6   -24.4   -16.6    -0.0     0.0   -48.2    -0.0    -0.0
ETRETA21 TRETAMAR     0 0 241.48     0.0     0.0     0.0     0.0     0.0     0.0     0.0     0.0
ETVICA21 TVICALVA     0 0 244.28     0.0     0.0     0.0     0.0     0.0     0.0     0.0     0.0
EVLDIG21 VALDIGNA     0 0 230.65    15.9    -0.8     0.0     0.0     0.0     0.0     0.0     0.0
EVALDM21 VALDMORO     0 2 243.32    81.2   -23.1   -18.7    -0.0     0.0   -34.5    -0.0    -0.0
EVALLU21 VALLDUXO     0 2 231.14    46.5   -24.6   -18.4    -0.0     0.0  -203.0    -0.0    -0.0
EVBATA21 VENBATAN     0 0 244.02    32.0     1.3     0.0     0.0     0.0     0.0     0.0     0.0
EVARCI21 VARCIPRE     0 0 240.45    27.3    -6.3     0.0     0.0     0.0     0.0     0.0     0.0
EVLCAR21 VLCARCER     0 0 230.83    17.1     1.3     0.0     0.0     0.0     0.0     0.0     0.0
EVIBAJ21 VILLBAJO     0 0 243.62   -18.9    24.1     0.0     0.0     0.0     0.0     0.0     0.0
EVILL021 VILLARES     0 2 243.33   -12.3    -7.1   -54.2    -0.0     0.0  -206.3    -0.0    -0.0
EVILLV21 VILLAVIC     0 0 240.55     0.0     0.0     0.0     0.0     0.0     0.0     0.0     0.0
ETDMNF21 TDMNFCID     0 0  233.8    -0.3     1.0     0.0     0.0     0.0     0.0     0.0     0.0
EARROY21 ARROYOVA     0 0  236.2     4.6    -1.6     0.0     0.0     0.0     0.0     0.0     0.0
EALCOR21 ALCORES      0 2 236.12   106.2     9.8   -78.5    -0.0     0.0  -198.1    -0.0    -0.0
EALGEC21 ALGECIRA     0 0 235.48    82.7    18.3     0.0     0.0     0.0     0.0     0.0     0.0
EALHAU21 ALHAURIN     0 2 234.26   173.7    21.2   -12.9    -0.0     0.0   -66.7    -0.0    -0.0
EALMOD21 ALMODOVA     0 0 236.06     0.2    -2.2     0.0     0.0     0.0     0.0     0.0     0.0
EALVAR21 ALVARADO     0 2 238.85    17.2     0.1   -56.2    -0.0     0.0  -298.7    37.1   -29.4
EANDUJ21 ANDUJAR      0 2 234.32   159.5    -3.5    -3.1    -0.0     0.0    -9.6    -0.0    -0.0
EBROVA21 BROVALES     0 0            0.0     0.0     0.0     0.0     0.0     0.0     0.0     0.0
EATARF21 ATARFE       0 2 231.95   108.4   -10.2    -6.4    -0.0     0.0   -19.3    -0.0    -0.0
EBALBO21 BALBOA       0 2 236.35    17.9    -4.8   -26.6    -0.0     0.0   -79.7    -0.0    -0.0
EBARRI21 BARRIOS      0 2 235.74     5.5     0.9    -0.5    -0.0     0.0    -1.3    -0.0    -0.0
EBENAH21 BENAHADU     0 0 232.09    36.4     8.0     0.0     0.0     0.0     0.0     0.0     0.0
EBERJA21 BERJA        0 0 228.71   111.3     9.1     0.0     0.0     0.0     0.0     0.0     0.0
EBRAZA21 BRAZATOR     0 0 236.15     0.0     0.0     0.0     0.0     0.0     0.0     0.0     0.0
EC.COL21 C.COLON      0 2 232.98    60.3    33.9  -292.6    51.5     0.0  -392.7   303.9  -287.5
ECANUE21 CANUELO      0 0 235.75    16.4    -9.0     0.0     0.0     0.0     0.0     0.0     0.0
ECARTA21 CARTAMA      0 0 234.72     0.0     0.0     0.0     0.0     0.0     0.0     0.0     0.0
ECARTU21 CARTUJA      0 2 233.97   210.5    10.4  -140.8    -0.0     0.0  -564.9    -0.0    -0.0
ECASAQ21 CASAQUEM     0 2 234.44   -15.3     0.1    -2.4    -0.0     0.0  -152.7    -0.0    -0.0
ECASIL21 CASILLAS     0 0 235.62    38.2    -4.4     0.0     0.0     0.0     0.0     0.0     0.0
ESALTE21 SALTERAS     0 2 234.36    16.0     0.6   -40.6    -0.0     0.0  -102.1    -0.0    -0.0
ECOSTA21 COSTASOL     0 0 233.94   142.3    -2.1     0.0     0.0     0.0     0.0     0.0     0.0
ECHUCE21 CHUCENA      0 0 234.32     0.0     0.0     0.0     0.0     0.0     0.0     0.0     0.0
EDRODR21 DRODRIGO     0 2 236.57    18.3    -2.4  -204.8    -0.0     0.0  -610.8    -0.0    -0.0
EDOSHM21 DOSHMNAS     0 2 236.52   119.4   -15.2   -20.3    -0.0     0.0   -51.0    -0.0    -0.0
ECENTN21 CENTENAR     0 0 234.05    75.4     7.4     0.0     0.0     0.0     0.0     0.0     0.0
EGABIA21 GABIAS       0 2 231.48    55.5   -13.9    -7.7    -0.0     0.0   -25.0    -0.0    -0.0
ECAPAR21 CAPARACE     0 2 231.59   103.5    12.4    -2.0    -0.0     0.0    -6.2    -0.0    -0.0
EENTRN21 ENTRENUC     0 0 236.53    -0.6    -0.9     0.0     0.0     0.0     0.0     0.0     0.0
ESASER21 SASERVAN     0 2 237.95     0.0    -1.5   -79.4    -0.0     0.0  -239.4    -0.0    -0.0
EGUADA21 GUADAME      0 0 234.27     0.0   113.4     0.0     0.0     0.0     0.0     0.0     0.0
EGUILL21 GUILLENA     0 0 234.66    50.2    -8.8     0.0     0.0     0.0     0.0     0.0     0.0
EILLOR21 ILLORA       0 2 232.84   -56.4    13.5   -27.8    -0.0     0.0   -84.6    -0.0    -0.0
EJORDA21 JORDANA      0 0 235.37     0.0     0.0     0.0     0.0     0.0     0.0     0.0     0.0
EL.MON21 L.MONTES     0 2 233.66   103.0    10.1    -1.7    -0.0     0.0    -5.1    -0.0    -0.0
EMIRAB21 MIRABAL      0 0 235.28     0.0     0.0     0.0     0.0     0.0     0.0     0.0     0.0
...